Circuit: * E:\MyDesigns\GitHub\Spice\xor.asc

WARNING: Less than two connections to node C.  This node is used by A3.
Direct Newton iteration for .op point succeeded.

Date: Fri Jan 18 12:22:09 2019
Total elapsed time: 0.066 seconds.

tnom = 27
temp = 27
method = modified trap
totiter = 8005
traniter = 8002
tranpoints = 3962
accept = 3557
rejected = 405
matrix size = 9
fillins = 0
solver = Normal
Matrix Compiler1: 152 bytes object code size  0.1/0.0/[0.0]
Matrix Compiler2: 383 bytes object code size  0.1/0.1/[0.1]

